Circuit: * J:\Projekty\FAMO\current3A\symulacje\current_amp_light.asc

Direct Newton iteration for .op point succeeded.

Date: Thu May 21 09:05:26 2020
Total elapsed time: 0.172 seconds.

tnom = 27
temp = 27
method = modified trap
totiter = 12124
traniter = 12082
tranpoints = 5707
accept = 5471
rejected = 236
matrix size = 19
fillins = 12
solver = Normal
Matrix Compiler1: 1.47 KB object code size  0.5/0.3/[0.1]
Matrix Compiler2: 2.10 KB object code size  0.3/0.5/[0.2]

