Circuit: * J:\Projekty\FAMO\current3A\symulacje\current_amp_u.asc

Direct Newton iteration failed to find .op point.  (Use ".option noopiter" to skip.)
Starting Gmin stepping
Gmin = 10
Gmin = 1.07374
Gmin = 0.115292
Gmin = 0.0123794
Gmin = 0.00132923
Gmin = 0.000142725
Gmin = 1.5325e-05
Gmin = 1.6455e-06
Gmin = 1.76685e-07
Gmin = 1.89714e-08
Gmin = 2.03704e-09
Gmin = 2.18725e-10
Gmin = 2.34854e-11
Gmin = 2.52173e-12
Gmin = 2.70769e-13
Gmin = 0
Gmin stepping succeeded in finding the operating point.


Date: Wed May 20 09:15:16 2020
Total elapsed time: 0.139 seconds.

tnom = 27
temp = 27
method = modified trap
totiter = 10439
traniter = 10040
tranpoints = 5021
accept = 5021
rejected = 0
matrix size = 20
fillins = 37
solver = Normal
Matrix Compiler1: 2.74 KB object code size  0.9/0.4/[0.2]
Matrix Compiler2: 2.34 KB object code size  0.4/0.7/[0.4]

